Circuit: * LMX58B_LM2904B - Rev. B

Fatal Error: No analysis request found.
