Circuit: * E:\projects\Linear_power_supply\simulation\power_reg_bode.asc

C3: both pins shorted together -- ignoring.
Direct Newton iteration failed to find .op point.  (Use ".option noopiter" to skip.)
Starting Gmin stepping
Gmin = 10
Gmin = 1.07374
Gmin = 0.115292
Gmin = 0.0123794
Gmin = 0.00132923
Gmin = 0.000142725
vernier = 0.5
vernier = 0.25
vernier = 0.125
vernier = 0.0625
vernier = 0.03125
Gmin = 0.000167911
vernier = 0.0416667
Gmin = 0.000153348
vernier = 0.0555555
vernier = 0.074074
Gmin = 0.00013223
vernier = 0.0987653
vernier = 0.131687
Gmin = 0.000104664
vernier = 0.175583
Gmin = 7.18083e-005
vernier = 0.23411
vernier = 0.312147
Gmin = 3.90305e-005
vernier = 0.416196
vernier = 0.554928
Gmin = 1.51061e-005
vernier = 0.739903
Gmin = 3.37673e-006
vernier = 0.986537
vernier = 1
Gmin = 3.88707e-007
vernier = 0.5
vernier = 0.25
vernier = 0.125
vernier = 0.0625
Gmin = 1.27372e-007
vernier = 0.03125
vernier = 0.015625
vernier = 0.0078125
vernier = 0.00390625
vernier = 0.00195313
vernier = 0.000976563
vernier = 0.000488281
Gmin = 0
Gmin stepping failed

Starting source stepping with srcstepmethod=0
Source Step = 3.0303%
Source Step = 33.3333%
Source Step = 63.6364%
Source Step = 88.6364%
vernier = 0.0625
Source Step = 87.8995%
Starting source stepping with srcstepmethod=1
Source Step = 3.0303%
Source Step = 33.3333%
Source Step = 63.6364%
Source Step = 88.6364%
vernier = 0.0625
Source stepping failed

Pseudo Transient succeeded in finding the operating point at 1.0211 s.

Date: Thu Feb 01 14:38:45 2024
Total elapsed time: 4.019 seconds.

tnom = 27
temp = 27
method = trap
totiter = 96264
traniter = 0
tranpoints = 0
accept = 0
rejected = 2394
matrix size = 286
fillins = 411
solver = Normal
Matrix Compiler1:    2226 opcodes  7.7/[2.9]/3.1
Matrix Compiler2: 30.66 KB object code size  2.5/3.4/[1.5]

