Circuit: * E:\projects\Linear_power_supply\simulation\power_reg.asc

Direct Newton iteration failed to find .op point.  (Use ".option noopiter" to skip.)
Starting Gmin stepping
Gmin = 10
Gmin = 1.07374
Gmin = 0.115292
Gmin = 0.0123794
Gmin = 0.00132923
Gmin = 0.000142725
vernier = 0.5
vernier = 0.25
Gmin = 8.43227e-005
vernier = 0.125
vernier = 0.0625
vernier = 0.03125
vernier = 0.015625
Gmin = 8.58691e-005
vernier = 0.0078125
vernier = 0.0104167
Gmin = 8.44841e-005
vernier = 0.0138889
vernier = 0.0185185
Gmin = 8.1559e-005
vernier = 0.0246913
Gmin = 7.71636e-005
vernier = 0.0329218
vernier = 0.0438957
Gmin = 7.03224e-005
vernier = 0.0585276
vernier = 0.0780367
Gmin = 6.06709e-005
vernier = 0.104049
Gmin = 4.81394e-005
vernier = 0.138732
vernier = 0.184976
Gmin = 3.27435e-005
vernier = 0.246634
vernier = 0.328846
Gmin = 1.78372e-005
vernier = 0.438461
Gmin = 6.96695e-006
vernier = 0.584614
vernier = 0.779486
Gmin = 1.50765e-006
vernier = 0.389743
vernier = 0.194871
vernier = 0.0974357
vernier = 0.0487178
vernier = 0.0243589
vernier = 0.0121795
vernier = 0.00608973
vernier = 0.00304487
vernier = 0.00152243
vernier = 0.000761216
Gmin = 1.80145e-006
vernier = 0.000570912
vernier = 0.000428184
Gmin = 0
Gmin stepping failed

Starting source stepping with srcstepmethod=0
Source Step = 3.0303%
Source Step = 33.3333%
Source Step = 63.6364%
Source Step = 88.6364%
vernier = 0.0625
Source Step = 87.8995%
Starting source stepping with srcstepmethod=1
Source Step = 3.0303%
Source Step = 33.3333%
Source Step = 63.6364%
Source Step = 88.6364%
vernier = 0.0625
Source stepping failed

Pseudo Transient succeeded in finding the operating point at 2.66065 s.

Date: Fri Feb 09 07:28:37 2024
Total elapsed time: 12.077 seconds.

tnom = 27
temp = 27
method = modified trap
totiter = 214751
traniter = 203128
tranpoints = 100761
accept = 100573
rejected = 281
matrix size = 284
fillins = 478
solver = Normal
Thread vector: 15.7/9.4[6] 7.5/2.3[6] 5.8/3.0[6] 0.9/2.5[1]  2592/500
Matrix Compiler1: 40.32 KB object code size  7.8/2.9/[1.9]
Matrix Compiler2: 31.84 KB object code size  2.8/3.8/[1.9]

