Circuit: * E:\projects\Linear_power_supply\simulation\old_regulator_bode.asc

Direct Newton iteration failed to find .op point.  (Use ".option noopiter" to skip.)
Starting Gmin stepping
Gmin = 10
Gmin = 1.07374
Gmin = 0.115292
Gmin = 0.0123794
Gmin = 0.00132923
Gmin = 0.000142725
vernier = 0.5
Gmin = 2.39452e-005
vernier = 0.25
vernier = 0.125
vernier = 0.0625
vernier = 0.03125
Gmin = 2.2362e-005
vernier = 0.015625
vernier = 0.0078125
vernier = 0.00390625
vernier = 0.00195313
vernier = 0.000976563
vernier = 0.000488281
Gmin = 2.23402e-005
Gmin = 0
Gmin stepping failed

Starting source stepping with srcstepmethod=0
Source Step = 3.0303%
Source Step = 33.3333%
Source Step = 36.3755%
Source Step = 36.4051%
Source Step = 36.4347%
Source Step = 36.4643%
Source Step = 36.4938%
vernier = 0.00146484
Source Step = 36.5264%
Source Step = 36.5708%
Source Step = 36.6152%
Source Step = 36.6596%
Source Step = 36.704%
vernier = 0.00219727
Source Step = 36.7506%
Source Step = 36.8171%
Source Step = 36.8837%
Source Step = 36.9503%
Source Step = 37.0169%
Source Step = 37.0835%
vernier = 0.0032959
Source Step = 37.1834%
Source Step = 37.2832%
Source Step = 37.3831%
Source Step = 37.483%
Source Step = 37.5829%
vernier = 0.00494385
Source Step = 37.7277%
Source Step = 37.8775%
Source Step = 38.0273%
Source Step = 38.1771%
Source Step = 38.3269%
vernier = 0.00741577
Source Step = 38.5367%
Source Step = 38.7614%
Source Step = 38.9861%
Source Step = 39.2108%
Source Step = 39.4356%
vernier = 0.0111237
Source Step = 39.7389%
Source Step = 40.076%
Source Step = 40.4131%
Source Step = 40.7502%
Source Step = 41.0872%
Source Step = 41.1631%
Source Step = 41.2474%
Source Step = 41.3316%
Source Step = 41.4159%
Source Step = 41.5002%
vernier = 0.00417137
Source Step = 41.6139%
Source Step = 41.7403%
Source Step = 41.8667%
Source Step = 41.9932%
Source Step = 42.1196%
vernier = 0.00625706
Source Step = 42.2839%
Source Step = 42.4735%
Source Step = 42.6631%
Source Step = 42.8527%
Source Step = 43.0423%
vernier = 0.00938559
Source Step = 43.2793%
Source Step = 43.5637%
Source Step = 43.8481%
Source Step = 44.1326%
Source Step = 44.417%
vernier = 0.0140784
Source Step = 44.7583%
Source Step = 45.1849%
Source Step = 45.6115%
Source Step = 46.0381%
Source Step = 46.4647%
vernier = 0.0211176
Source Step = 46.9553%
Source Step = 47.5953%
Source Step = 48.2352%
Source Step = 48.8751%
Source Step = 49.5151%
vernier = 0.0316764
Source Step = 50.219%
Source Step = 51.1789%
Source Step = 52.1387%
Source Step = 53.0986%
Source Step = 54.0585%
vernier = 0.0475145
Source Step = 55.0664%
Source Step = 56.5062%
Source Step = 57.9461%
Source Step = 59.3859%
Source Step = 60.8257%
Source Step = 62.2656%
vernier = 0.0712718
Source Step = 64.4253%
Source Step = 66.5851%
Source Step = 68.7448%
Source Step = 70.9046%
Source Step = 73.0643%
vernier = 0.106908
Source Step = 76.196%
Source Step = 79.4356%
Source Step = 82.6752%
Source Step = 85.9149%
Source Step = 89.1545%
vernier = 0.160362
Source Step = 93.69%
Source Step = 98.5494%
Source stepping succeeded in finding the operating point.


Date: Fri Feb 09 07:31:09 2024
Total elapsed time: 0.547 seconds.

tnom = 27
temp = 27
method = trap
totiter = 6230
traniter = 0
tranpoints = 0
accept = 0
rejected = 0
matrix size = 159
fillins = 201
solver = Normal
Matrix Compiler1:    1309 opcodes
Matrix Compiler2: 17.51 KB object code size  1.2/1.7/[0.8]

